Version 4.1
SHEET 1 1596 680
WIRE -560 -32 -720 -32
WIRE -464 -32 -560 -32
WIRE -320 -32 -464 -32
WIRE 16 -32 -64 -32
WIRE -560 0 -560 -32
WIRE 16 0 16 -32
WIRE -720 64 -720 -32
WIRE -464 96 -464 -32
WIRE -320 96 -464 96
WIRE 16 96 16 64
WIRE 16 96 -64 96
WIRE 128 96 16 96
WIRE 256 96 208 96
WIRE 384 96 256 96
WIRE 480 96 384 96
WIRE -560 112 -560 64
WIRE 256 112 256 96
WIRE 16 128 16 96
WIRE 384 160 384 96
WIRE 480 160 480 96
WIRE -720 208 -720 144
WIRE -320 224 -368 224
WIRE 256 224 256 192
WIRE 256 224 -64 224
WIRE 256 240 256 224
WIRE -368 288 -368 224
WIRE 16 288 16 192
WIRE 384 288 384 224
WIRE 480 288 480 240
WIRE 256 336 256 320
FLAG -720 208 0
FLAG -368 288 0
FLAG 16 288 0
FLAG 256 336 0
FLAG 480 288 0
FLAG 384 288 0
FLAG -560 112 0
SYMBOL PowerProducts\\ADP2300 -192 96 R0
SYMATTR InstName U2
SYMBOL voltage -720 48 R0
WINDOW 123 0 0 Left 0
WINDOW 39 0 0 Left 0
SYMATTR InstName V1
SYMATTR Value 12V
SYMBOL cap 0 0 R0
SYMATTR InstName C1
SYMATTR Value 0.22”
SYMBOL schottky 32 192 R180
WINDOW 0 24 64 Left 2
WINDOW 3 24 0 Left 2
SYMATTR InstName D1
SYMATTR Value 1N5819
SYMBOL ind 112 112 R270
WINDOW 0 32 56 VTop 2
WINDOW 3 5 56 VBottom 2
SYMATTR InstName L1
SYMATTR Value 5”
SYMBOL res 240 96 R0
SYMATTR InstName R1
SYMATTR Value 115k
SYMBOL res 240 224 R0
SYMATTR InstName R2
SYMATTR Value 10k
SYMBOL res 464 144 R0
SYMATTR InstName R3
SYMATTR Value 1k
SYMBOL polcap 368 160 R0
SYMATTR InstName C4
SYMATTR Value 10”
SYMBOL polcap -576 0 R0
SYMATTR InstName C5
SYMATTR Value 5”
TEXT -752 360 Left 2 !.tran 0.01 startup
